# DDEC6 charges by PACMAN v1.3.9 (https://github.com/mtap-research/PACMAN-charge/)
data_GOHZOW_ION_FSR_pacman
_symmetry_space_group_name_H-M   'P 1'
_cell_length_a   9.59064675
_cell_length_b   9.59064675
_cell_length_c   22.04290000
_cell_angle_alpha   87.68435981
_cell_angle_beta   92.31564019
_cell_angle_gamma   87.52138147
_symmetry_Int_Tables_number   1
_chemical_formula_structural   ZnH32C34(N2O5)2
_chemical_formula_sum   'Zn2 H64 C68 N8 O20'
_cell_volume   2022.16088153
_cell_formula_units_Z   2
loop_
 _symmetry_equiv_pos_site_id
 _symmetry_equiv_pos_as_xyz
  1  'x, y, z'
loop_
 _atom_site_type_symbol
 _atom_site_label
 _atom_site_symmetry_multiplicity
 _atom_site_fract_x
 _atom_site_fract_y
 _atom_site_fract_z
 _atom_site_occupancy
 _atom_site_charge
Zn  Zn0  1  0.37256000  0.37256000  0.25000000  1 0.9259495646
H  H1  1  0.91010100  0.32674700  0.52605500  1 0.2870524064
H  H2  1  0.32674700  0.91010100  0.97394500  1 0.2870524064
H  H3  1  0.82521200  0.36995600  0.27417600  1 0.1284406657
H  H4  1  0.36995600  0.82521200  0.22582400  1 0.1284406657
H  H5  1  0.12133700  0.34131300  0.40882200  1 0.1284406657
H  H6  1  0.34131300  0.12133700  0.09117800  1 0.1284406657
H  H7  1  0.71895900  0.28920300  0.44599300  1 0.1284406657
H  H8  1  0.28920300  0.71895900  0.05400700  1 0.1284406657
H  H9  1  0.19343500  0.99875900  0.58954900  1 0.1228743745
H  H10  1  0.99875900  0.19343500  0.91045100  1 0.1228743745
H  H11  1  0.21922000  0.96208600  0.69333700  1 0.1228743745
H  H12  1  0.96208600  0.21922000  0.80666300  1 0.1284406657
H  H13  1  0.01881900  0.33135100  0.71653800  1 0.1228743745
H  H14  1  0.33135100  0.01881900  0.78346200  1 0.1228743745
H  H15  1  0.98847700  0.36534700  0.61257600  1 0.1139554031
H  H16  1  0.36534700  0.98847700  0.88742400  1 0.1139554031
C  C17  1  0.59584000  0.32754000  0.33697000  1 0.5660074264
C  C18  1  0.32754000  0.59584000  0.16303000  1 0.5660074264
C  C19  1  0.74826000  0.33074000  0.35693000  1 -0.0041608203
C  C20  1  0.33074000  0.74826000  0.14307000  1 -0.0041608203
C  C21  1  0.85040000  0.35512000  0.31519000  1 -0.1303653359
C  C22  1  0.35512000  0.85040000  0.18481000  1 -0.1303653359
C  C23  1  0.98989000  0.35735000  0.33459000  1 -0.0197495739
C  C24  1  0.35735000  0.98989000  0.16541000  1 -0.0197495739
C  C25  1  0.02824000  0.33702000  0.39578000  1 -0.2036636114
C  C26  1  0.33702000  0.02824000  0.10422000  1 -0.2036636114
C  C27  1  0.92627000  0.31009000  0.43773000  1 0.2269170791
C  C28  1  0.31009000  0.92627000  0.06227000  1 0.2269170791
C  C29  1  0.78679000  0.30711000  0.41807000  1 -0.217575708
C  C30  1  0.30711000  0.78679000  0.08193000  1 -0.217575708
C  C31  1  0.07202000  0.20348000  0.52262000  1 0.4656159491
C  C32  1  0.20348000  0.07202000  0.97738000  1 0.4656159491
C  C33  1  0.08689000  0.18537000  0.59009000  1 -0.0390068233
C  C34  1  0.18537000  0.08689000  0.90991000  1 -0.0390068233
C  C35  1  0.15720000  0.06506000  0.61498000  1 -0.0917187087
C  C36  1  0.06506000  0.15720000  0.88502000  1 -0.0917187087
C  C37  1  0.17345000  0.04367000  0.67733000  1 -0.1303653359
C  C38  1  0.04367000  0.17345000  0.82267000  1 -0.1303653359
C  C39  1  0.12239000  0.14227000  0.71663000  1 0.0791615606
C  C40  1  0.14227000  0.12239000  0.78337000  1 0.0791615606
C  C41  1  0.05316000  0.26384000  0.69121000  1 -0.1239307444
C  C42  1  0.26384000  0.05316000  0.80879000  1 -0.1239307444
C  C43  1  0.03532000  0.28450000  0.62877000  1 -0.1303653359
C  C44  1  0.28450000  0.03532000  0.87123000  1 -0.1303653359
C  C45  1  0.10039000  0.38105000  0.28888000  1 0.5502744526
C  C46  1  0.38105000  0.10039000  0.21112000  1 0.5502744526
N  N47  1  0.96177000  0.28621000  0.50042000  1 -0.3737943858
N  N48  1  0.28621000  0.96177000  0.99958000  1 -0.3737943858
O  O49  1  0.56708000  0.36102000  0.28121000  1 -0.5492489427
O  O50  1  0.36102000  0.56708000  0.21879000  1 -0.5492489427
O  O51  1  0.51007000  0.29561000  0.37496000  1 -0.5593039631
O  O52  1  0.29561000  0.51007000  0.12504000  1 -0.5593039631
O  O53  1  0.06576000  0.42572000  0.23696000  1 -0.5492489427
O  O54  1  0.42572000  0.06576000  0.26304000  1 -0.5492489427
O  O55  1  0.22558000  0.35090000  0.30854000  1 -0.5593039631
O  O56  1  0.35090000  0.22558000  0.19146000  1 -0.5593039631
O  O57  1  0.15457000  0.14337000  0.49015000  1 -0.4723016411
O  O58  1  0.14337000  0.15457000  0.00985000  1 -0.4723016411
Zn  Zn59  1  0.62744000  0.62744000  0.75000000  1 0.9259495646
H  H60  1  0.08989900  0.67325300  0.47394500  1 0.2870524064
H  H61  1  0.67325300  0.08989900  0.02605500  1 0.2870524064
H  H62  1  0.17478800  0.63004400  0.72582400  1 0.1284406657
H  H63  1  0.63004400  0.17478800  0.77417600  1 0.1284406657
H  H64  1  0.87866300  0.65868700  0.59117800  1 0.1284406657
H  H65  1  0.65868700  0.87866300  0.90882200  1 0.1284406657
H  H66  1  0.28104100  0.71079700  0.55400700  1 0.1284406657
H  H67  1  0.71079700  0.28104100  0.94599300  1 0.1284406657
H  H68  1  0.80656500  0.00124100  0.41045100  1 0.1228743745
H  H69  1  0.00124100  0.80656500  0.08954900  1 0.1228743745
H  H70  1  0.78078000  0.03791400  0.30666300  1 0.1228743745
H  H71  1  0.03791400  0.78078000  0.19333700  1 0.1284406657
H  H72  1  0.98118100  0.66864900  0.28346200  1 0.1228743745
H  H73  1  0.66864900  0.98118100  0.21653800  1 0.1228743745
H  H74  1  0.01152300  0.63465300  0.38742400  1 0.1139554031
H  H75  1  0.63465300  0.01152300  0.11257600  1 0.1139554031
C  C76  1  0.40416000  0.67246000  0.66303000  1 0.5660074264
C  C77  1  0.67246000  0.40416000  0.83697000  1 0.5660074264
C  C78  1  0.25174000  0.66926000  0.64307000  1 -0.0041608203
C  C79  1  0.66926000  0.25174000  0.85693000  1 -0.0041608203
C  C80  1  0.14960000  0.64488000  0.68481000  1 -0.1303653359
C  C81  1  0.64488000  0.14960000  0.81519000  1 -0.1303653359
C  C82  1  0.01011000  0.64265000  0.66541000  1 -0.0197495739
C  C83  1  0.64265000  0.01011000  0.83459000  1 -0.0197495739
C  C84  1  0.97176000  0.66298000  0.60422000  1 -0.2036636114
C  C85  1  0.66298000  0.97176000  0.89578000  1 -0.2036636114
C  C86  1  0.07373000  0.68991000  0.56227000  1 0.2269170791
C  C87  1  0.68991000  0.07373000  0.93773000  1 0.2269170791
C  C88  1  0.21321000  0.69289000  0.58193000  1 -0.217575708
C  C89  1  0.69289000  0.21321000  0.91807000  1 -0.217575708
C  C90  1  0.92798000  0.79652000  0.47738000  1 0.4656159491
C  C91  1  0.79652000  0.92798000  0.02262000  1 0.4656159491
C  C92  1  0.91311000  0.81463000  0.40991000  1 -0.0390068233
C  C93  1  0.81463000  0.91311000  0.09009000  1 -0.0390068233
C  C94  1  0.84280000  0.93494000  0.38502000  1 -0.0917187087
C  C95  1  0.93494000  0.84280000  0.11498000  1 -0.0917187087
C  C96  1  0.82655000  0.95633000  0.32267000  1 -0.1303653359
C  C97  1  0.95633000  0.82655000  0.17733000  1 -0.1303653359
C  C98  1  0.87761000  0.85773000  0.28337000  1 0.0791615606
C  C99  1  0.85773000  0.87761000  0.21663000  1 0.0791615606
C  C100  1  0.94684000  0.73616000  0.30879000  1 -0.1239307444
C  C101  1  0.73616000  0.94684000  0.19121000  1 -0.1239307444
C  C102  1  0.96468000  0.71550000  0.37123000  1 -0.1303653359
C  C103  1  0.71550000  0.96468000  0.12877000  1 -0.1303653359
C  C104  1  0.89961000  0.61895000  0.71112000  1 0.5502744526
C  C105  1  0.61895000  0.89961000  0.78888000  1 0.5502744526
N  N106  1  0.03823000  0.71379000  0.49958000  1 -0.3737943858
N  N107  1  0.71379000  0.03823000  0.00042000  1 -0.3737943858
O  O108  1  0.43292000  0.63898000  0.71879000  1 -0.5492489427
O  O109  1  0.63898000  0.43292000  0.78121000  1 -0.5492489427
O  O110  1  0.48993000  0.70439000  0.62504000  1 -0.5593039631
O  O111  1  0.70439000  0.48993000  0.87496000  1 -0.5593039631
O  O112  1  0.93424000  0.57428000  0.76304000  1 -0.5492489427
O  O113  1  0.57428000  0.93424000  0.73696000  1 -0.5492489427
O  O114  1  0.77442000  0.64910000  0.69146000  1 -0.5593039631
O  O115  1  0.64910000  0.77442000  0.80854000  1 -0.5593039631
O  O116  1  0.84543000  0.85663000  0.50985000  1 -0.4723016411
O  O117  1  0.85663000  0.84543000  0.99015000  1 -0.4723016411
H  H118  1  0.14775400  0.26452000  0.09013100  1 0.2522000358
H  H119  1  0.14652500  0.34318300  0.14412900  1 0.267115435
H  H120  1  0.95524100  0.24376300  0.17537100  1 0.1368283872
H  H121  1  0.07170300  0.12922100  0.16388800  1 0.1284406657
H  H122  1  0.94970400  0.16196400  0.11523100  1 0.1228743745
H  H123  1  0.96016600  0.47268600  0.11073300  1 0.1368283872
H  H124  1  0.94979000  0.38138600  0.05345200  1 0.1284406657
H  H125  1  0.07538000  0.47892800  0.06235300  1 0.1368283872
C  C126  1  0.01029000  0.20149000  0.14505000  1 -0.2883100301
C  C127  1  0.01260000  0.41940000  0.08280000  1 -0.277820298
N  N128  1  0.09213000  0.30653000  0.11583000  1 -0.0917187087
H  H129  1  0.26452000  0.14775400  0.40986900  1 0.2522000358
H  H130  1  0.34318300  0.14652500  0.35587100  1 0.267115435
H  H131  1  0.24376300  0.95524100  0.32462900  1 0.1368283872
H  H132  1  0.12922100  0.07170300  0.33611200  1 0.1284406657
H  H133  1  0.16196400  0.94970400  0.38476900  1 0.1228743745
H  H134  1  0.47268600  0.96016600  0.38926700  1 0.1368283872
H  H135  1  0.38138600  0.94979000  0.44654800  1 0.1284406657
H  H136  1  0.47892800  0.07538000  0.43764700  1 0.1284406657
C  C137  1  0.20149000  0.01029000  0.35495000  1 -0.2883100301
C  C138  1  0.41940000  0.01260000  0.41720000  1 -0.277820298
N  N139  1  0.30653000  0.09213000  0.38417000  1 -0.0917187087
H  H140  1  0.85224600  0.73548000  0.90986900  1 0.2522000358
H  H141  1  0.85347500  0.65681700  0.85587100  1 0.267115435
H  H142  1  0.04475900  0.75623700  0.82462900  1 0.1368283872
H  H143  1  0.92829700  0.87077900  0.83611200  1 0.1284406657
H  H144  1  0.05029600  0.83803600  0.88476900  1 0.1228743745
H  H145  1  0.03983400  0.52731400  0.88926700  1 0.1368283872
H  H146  1  0.05021000  0.61861400  0.94654800  1 0.1284406657
H  H147  1  0.92462000  0.52107200  0.93764700  1 0.1284406657
C  C148  1  0.98971000  0.79851000  0.85495000  1 -0.2883100301
C  C149  1  0.98740000  0.58060000  0.91720000  1 -0.277820298
N  N150  1  0.90787000  0.69347000  0.88417000  1 -0.0917187087
H  H151  1  0.73548000  0.85224600  0.59013100  1 0.2522000358
H  H152  1  0.65681700  0.85347500  0.64412900  1 0.267115435
H  H153  1  0.75623700  0.04475900  0.67537100  1 0.1368283872
H  H154  1  0.87077900  0.92829700  0.66388800  1 0.1284406657
H  H155  1  0.83803600  0.05029600  0.61523100  1 0.1228743745
H  H156  1  0.52731400  0.03983400  0.61073300  1 0.1368283872
H  H157  1  0.61861400  0.05021000  0.55345200  1 0.1284406657
H  H158  1  0.52107200  0.92462000  0.56235300  1 0.1284406657
C  C159  1  0.79851000  0.98971000  0.64505000  1 -0.2883100301
C  C160  1  0.58060000  0.98740000  0.58280000  1 -0.277820298
N  N161  1  0.69347000  0.90787000  0.61583000  1 -0.0917187087
